Version 4
SHEET 1 1992 680
WIRE 1072 -64 736 -64
WIRE 656 -48 640 -48
WIRE 832 -32 736 -32
WIRE 160 80 32 80
WIRE 336 80 288 80
WIRE 464 80 416 80
WIRE 608 80 544 80
WIRE 640 80 640 -48
WIRE 640 80 608 80
WIRE 608 96 608 80
WIRE 832 112 832 -32
WIRE 32 128 32 80
WIRE 160 128 160 80
WIRE 288 128 288 80
WIRE 32 256 32 208
WIRE 160 256 160 208
WIRE 160 256 32 256
WIRE 288 256 288 208
WIRE 288 256 160 256
WIRE 336 256 288 256
WIRE 448 256 416 256
WIRE 608 256 608 240
WIRE 608 256 528 256
WIRE 672 256 672 0
WIRE 672 256 608 256
WIRE 720 256 720 80
WIRE 720 256 672 256
WIRE 832 256 832 192
WIRE 832 256 720 256
WIRE 1072 256 832 256
WIRE 32 288 32 256
FLAG 32 288 0
FLAG 32 80 In
IOPIN 32 80 In
FLAG 608 80 Out
IOPIN 608 80 Out
SYMBOL voltage 32 112 R0
WINDOW 123 0 0 Left 0
WINDOW 39 24 124 Left 2
SYMATTR InstName V1
SYMATTR Value 5
SYMBOL ind 320 272 R270
WINDOW 0 32 56 VTop 2
WINDOW 3 5 56 VBottom 2
SYMATTR InstName L1
SYMATTR Value 800n
SYMBOL res 544 240 R90
WINDOW 0 0 56 VBottom 2
WINDOW 3 32 56 VTop 2
SYMATTR InstName ESRL
SYMATTR Value 0.002
SYMBOL cap 592 96 R0
SYMATTR InstName C1
SYMATTR Value 10µ
SYMBOL res 816 96 R0
SYMATTR InstName Ro
SYMATTR Value 2
SYMBOL res 432 64 R90
WINDOW 0 0 56 VBottom 2
WINDOW 3 32 56 VTop 2
SYMATTR InstName Rds1
SYMATTR Value 0.016
SYMBOL res 592 144 R0
SYMATTR InstName Rc
SYMATTR Value 0.1
SYMBOL bv 288 112 R0
WINDOW 3 39 59 Left 2
SYMATTR Value V=V(In)*duty
SYMATTR InstName B1
SYMBOL f 160 128 R0
SYMATTR InstName F1
SYMATTR Value L1 0.5
SYMBOL res 560 64 R90
WINDOW 0 0 56 VBottom 2
WINDOW 3 32 56 VTop 2
SYMATTR InstName Rds2
SYMATTR Value 0.0065
SYMBOL SPDT 640 -48 R270
SYMATTR InstName U1
SYMBOL voltage 720 -16 R0
WINDOW 123 0 0 Left 0
WINDOW 39 0 0 Left 0
SYMATTR InstName V2
SYMATTR Value PULSE(0 1 0 0 0 250uu 500u)
SYMBOL res 1056 -80 R0
SYMATTR InstName Ro1
SYMATTR Value 2
SYMBOL res 1056 0 R0
SYMATTR InstName Ro2
SYMATTR Value 2
SYMBOL res 1056 80 R0
SYMATTR InstName Ro3
SYMATTR Value 2
SYMBOL res 1056 160 R0
SYMATTR InstName Ro4
SYMATTR Value 2
TEXT -40 -336 Left 2 !.tran 600u
TEXT 176 -336 Left 2 !.param duty = 0.667
TEXT -40 -296 Left 2 !.subckt SPDT COM NO NC POS NEG\nS1 COM NO POS NEG MYSW1\nS2 COM NC NEG POS MYSW2\n.model MYSW1 SW(Ron=.01 Roff=1000Meg Vh=.25 Vt=.5)\n.model MYSW2 SW(Ron=.01 Roff=1000Meg Vh=.25 Vt=-.5)\n.ends
